168
 -305.09792155656351
N         4.95174355775450   -1.62360507041691   -1.00239611549140
C         5.70487659087001   -1.36399789576804    0.19243692347992
C         5.85288191547328    0.18261733214112    0.19655189420752
N         5.17317917958864    0.58668463219323   -1.00170826685663
C         4.67766691245592   -0.47966592693663   -1.72352921754519
N         5.02353348699482   -1.63837471403952    1.42615637816829
C         4.79581415032088   -0.50222577624138    2.17617481700133
N         5.22462303819420    0.57519120452881    1.42712579485726
O         4.18414561543340   -0.43011698376730   -2.81266992764219
O         4.39028931281958   -0.46587772419730    3.30086805711646
N         4.40302709765837    2.87195253997320   -0.98842391693633
C         4.68152911508373    3.57936740911435    0.22982834766980
C         3.60916782796244    4.70364979343488    0.24838325615450
N         2.87417421103427    4.48073753112858   -0.96405725891984
C         3.37032123257331    3.43327759282176   -1.71138416595105
N         4.42490094775133    2.85229701014769    1.44153642999615
C         3.41076097073712    3.40883535361151    2.19500642100157
N         2.88906837950955    4.46046465235096    1.46703304512688
O         3.03480420286173    3.12971881142160   -2.81864044505840
O         3.10117878619616    3.09805930782305    3.30757825722093
N        -0.46277507215569   -5.31078329819338   -0.87531416208425
C        -0.96895752612039   -5.87780046585594    0.34404230451745
C        -2.44312408025049   -5.38752496354417    0.38706486366536
N        -2.57809181776047   -4.63964952961830   -0.82947163424411
C        -1.43082908681238   -4.63889128446957   -1.59343592125832
N        -0.40832755949446   -5.35332295904452    1.55710714268231
C        -1.33320282067167   -4.67889941015712    2.32472814728960
N        -2.50810129490735   -4.62593213432831    1.60483205670527
O        -1.32309057869307   -4.21844520190596   -2.70841567487749
O        -1.17208159668660   -4.28681680368828    3.44469849545810
N        -4.60597561006984    1.62523989956889   -0.77823503762277
C        -5.04150768943729    2.25139404928753    0.43787200426253
C        -4.31235307240149    3.62207045312054    0.42153264862358
N        -3.57094501941305    3.58831818875884   -0.80506675957362
C        -3.80491184581614    2.44613983075551   -1.54205756285271
N        -4.58901542056313    1.64395643889481    1.65868582457702
C        -3.80576018273053    2.49533170235797    2.41142692357618
N        -3.53866678618755    3.60432474407077    1.63106181095338
O        -3.46170281143352    2.25562231100620   -2.67250589183671
O        -3.50283760235869    2.35069609918214    3.56016539076250
N         0.59300433183509    5.24820037860623   -0.88905738966173
C         0.19067470063240    5.91364355443110    0.31846680032070
C        -1.34928221067999    5.70725836719520    0.35137583073593
N        -1.60931123781134    4.97267622595640   -0.85273472777317
C        -0.47525188695120    4.74429211488769   -1.60268392738150
N         0.63231248388820    5.30843790030831    1.54361316786221
C        -0.40952595848084    4.83949484345688    2.31292098082759
N        -1.56761424502563    4.99543914070406    1.58189656954622
O        -0.43674787892220    4.28055842963022   -2.70484946743728
O        -0.33287871668735    4.44718539690926    3.44259540573283
C        -3.81951980658324   -4.14622376046249   -1.34832523342437
C         5.32336530743406    1.88515592891021    2.00323287992584
C        -3.72174263055486   -4.13372257207028    2.19493946662685
C         5.27221026339517    1.89620274568805   -1.57762830143485
N         3.74404293430827   -3.71080471083206   -0.98410447303697
C         3.89037140414078   -4.47119857995755    0.22511695475165
C         2.61352935735203   -5.35632743334529    0.25166006483097
N         1.92188700400923   -4.97918964302801   -0.94846792317035
C         2.61116831221283   -4.04782361692960   -1.69629747688759
N         3.80158801837986   -3.71927231438800    1.44532164345394
C         2.70511559078737   -4.06558553212782    2.20914183657283
N         1.97354434923503   -4.98357604634005    1.48202359332931
O         2.33107520780957   -3.67278862368450   -2.79717703618326
O         2.47960096052279   -3.70883252702663    3.32817232730494
C         4.78531319674827   -2.92584908532062   -1.57947974599829
C         4.87736434828309   -2.94659002732802    1.99607392093540
C         0.88270640764009   -5.70183787462930    2.07586326997474
C         0.78606820987757   -5.67252659004527   -1.48106251747408
C         1.88803201591812    5.37549211434491   -1.49290750487846
C         1.96848493393838    5.38846314626499    2.05929561323424
C        -2.91584899675789    4.72161845842687   -1.38547071625508
C        -2.85902826558038    4.75017994874211    2.16287915063714
N        -4.82314832614682   -0.75700773067751    1.66568501161364
C        -5.39460886506103   -1.27844185771166    0.45489408997832
C        -4.95135541008632   -2.76642206352741    0.45307992421105
N        -4.17628146890969   -2.88477994151648    1.65572373451163
C        -4.20560139613860   -1.73419579432935    2.41913847361320
N        -4.85095836499535   -0.76654335961410   -0.77117760249931
C        -4.24138107504578   -1.74120398463549   -1.53147638152045
N        -4.23158870800939   -2.89766899114864   -0.78006134911011
O        -3.85356040820120   -1.63474002295732    3.55879705123648
O        -3.88355385568724   -1.63736658760825   -2.66865370120243
C        -5.20914561426045    0.49434874448527    2.25203549130790
C        -5.24270746547417    0.48021141019756   -1.35687478815760
H         6.66209833477723   -1.91706972799361    0.16034020033218
H         6.89789962838973    0.54410998672334    0.17535859963605
H         5.72624804303169    3.94229646095428    0.22307466527289
H         4.02060285222263    5.73026026066263    0.25401597322786
H        -0.85270029416180   -6.97751884686215    0.32256743543446
H        -3.19491753134880   -6.19832378565922    0.41292207138490
H        -6.14652179850087    2.32316145634069    0.44463290730376
H        -4.98736471136157    4.49994847879042    0.42410063783296
H         0.51039867495982    6.97196723442059    0.28766813507630
H        -1.93707447990067    6.64405195922959    0.35294436167436
H        -4.60592141970855   -4.90101483711268   -1.19262846789380
H        -3.65418735359597   -3.95786943202300   -2.41729609044309
H         5.04076110652876    1.77718543904779    3.05872515414858
H         6.35886253230501    2.25056687958803    1.90432197010795
H        -3.49962182830766   -3.94906603501486    3.25415380436895
H        -4.51282133406019   -4.89256976277403    2.08377859738104
H         4.95653758500531    1.79885390555380   -2.62473895224351
H         6.31533797637497    2.24537480541849   -1.50777387266550
H         4.84032253835399   -5.03708537443646    0.20043419301610
H         2.80951771946613   -6.44481695492857    0.24514343783404
H         4.48851902230399   -2.76521323805349   -2.62432010899831
H         5.73856567540528   -3.47559307290491   -1.51720735905835
H         4.63550169873794   -2.79388699433777    3.05613990631757
H         5.82196024794758   -3.50260258426659    1.87957629359837
H         0.87147484428439   -5.42259849064623    3.13771703386138
H         1.04642326621472   -6.78385587314240    1.95050800394169
H         0.71266743835556   -5.37629698212142   -2.53589423975547
H         0.94100570772568   -6.75860546534671   -1.38132879162814
H         1.76444990504303    5.10269493122397   -2.54935118927018
H         2.24018999503060    6.41359330416597   -1.38703260406744
H         1.90101657400074    5.12265381819933    3.12250549755372
H         2.34965866652458    6.41351263368402    1.92912663832534
H        -2.77638368994687    4.48506909046811   -2.44858823884654
H        -3.54161855786769    5.61825311231932   -1.25463719730153
H        -3.48903230687807    5.64514298997508    2.03479641613109
H        -2.68758849591610    4.53963281951045    3.22673781994557
H        -6.49180110569895   -1.12965523887664    0.46689952172836
H        -5.78643636830471   -3.49329807650335    0.47535779033578
H        -4.87164062854556    0.46594780388309    3.29631981185018
H        -6.30700130210216    0.60042525694090    2.19545820920838
H        -6.33857983491526    0.59316657686123   -1.28195708114530
H        -4.92008537763200    0.44328557446545   -2.40571934606524
C        -0.52211151250105   -0.07860069106269   -3.89335091043887
C         0.13155119401085   -1.41797557465009   -4.25861205571062
C         0.46488565695516   -1.42515866659570   -5.74801593093926
C         1.43417744975122   -0.28490026539321   -6.05780371632512
C         0.77911156346828    1.04886241337871   -5.70099748354669
C         0.44799934792056    1.06856514563474   -4.21139462924743
C        -0.50219014328808    1.22855280631178   -6.51386395798295
C        -1.46716430887109    0.08617363884664   -6.19821206004078
C        -1.80819410771207    0.10071618417369   -4.71025689618205
C        -0.81621942932308   -1.24792874024414   -6.56186676005926
C        -0.82973370632306   -0.05757221399354   -2.47903751471939
C        -1.04112917544416   -0.03331113762544   -1.29442177309550
C        -1.13814046689505    0.02363192159956    0.11219290668546
C        -1.04125632192244    1.25448563121248    0.76722561117586
C        -1.00169304756378    1.31226424882303    2.14243157101813
C        -1.07308295384577    0.15001394521888    2.91307854158462
C        -1.19214035072235   -1.07493086089695    2.25226336894861
C        -1.22783761897085   -1.14201611551685    0.87584190401805
C        -1.03259427828005    0.16738892146090    4.36661618540391
C        -0.74533929362520    1.21506833617469    5.12996684194903
H         1.04499250067022   -1.55963913255772   -3.67752187713391
H        -0.54653360194067   -2.23881475735228   -4.01645266749057
H         0.93306830169657   -2.38314476370849   -6.00409911065991
H         2.34773553726663   -0.41136500619718   -5.47305489249531
H         1.70274645555832   -0.29890516854606   -7.11896031227540
H         1.47279493317225    1.86865631572140   -5.92194202853149
H        -0.00338053795680    2.02411350446879   -3.93571297170096
H         1.36553946133892    0.95325859766345   -3.63051254997429
H        -0.96665472124828    2.18453784198419   -6.26065754383168
H        -0.27012836615423    1.23739356765398   -7.58359710508582
H        -2.38801238583281    0.21423675319404   -6.78257778843164
H        -2.50255727366195   -0.70586893191197   -4.46801422308354
H        -2.28058183079963    1.04529068073110   -4.43472503378429
H        -1.50631361131672   -2.06672033090966   -6.34429446767322
H        -0.58774935617426   -1.27322836370035   -7.63211895684158
H        -0.96994290000456    2.15688067656076    0.17109360936514
H        -0.90066493958801    2.26166508601235    2.63920704492818
H        -1.23031150094935   -1.97741894098128    2.84302819352771
H        -1.29775667634088   -2.09700663102890    0.36789887140447
H        -1.26093924678392   -0.78577958463773    4.82692763019944
H        -0.74242026232559    1.13290500809226    6.20422738926951
H        -0.49717571387784    2.18344793900478    4.73173222104383
